[TITLE]
;;Project Title/Notes
Input Files

[OPTIONS]
;;Option             Value
FLOW_UNITS           CFS
INFILTRATION         GREEN_AMPT
FLOW_ROUTING         KINWAVE
LINK_OFFSETS         DEPTH
MIN_SLOPE            1
ALLOW_PONDING        NO
SKIP_STEADY_STATE    NO

START_DATE           10/01/1990
START_TIME           00:00:00
REPORT_START_DATE    10/01/1990
REPORT_START_TIME    00:00:00
END_DATE             10/01/1996
END_TIME             00:00:00
SWEEP_START          01/01
SWEEP_END            12/31
DRY_DAYS             0
REPORT_STEP          00:15:00
WET_STEP             00:15:00
DRY_STEP             04:00:00
ROUTING_STEP         0:00:30 

INERTIAL_DAMPING     PARTIAL
NORMAL_FLOW_LIMITED  BOTH
FORCE_MAIN_EQUATION  H-W
VARIABLE_STEP        0.75
LENGTHENING_STEP     0
MIN_SURFAREA         0
MAX_TRIALS           0
HEAD_TOLERANCE       0
SYS_FLOW_TOL         5
LAT_FLOW_TOL         5

[EVAPORATION]
;;Evap Data      Parameters
;;-------------- ----------------
MONTHLY          0.011  0.015  0.025  0.078  0.106  0.134  0.152  0.135  0.104  0.064  0.034  0.01  
DRY_ONLY         NO

[TEMPERATURE]
;;Temp/Wind/Snow   Source/Data
TIMESERIES         TempTSeries
WINDSPEED          MONTHLY    11.5 11.7 11.2 10.5 9.5 9.2 8.7 8.5 8.9 9.8 11.2 11.5
SNOWMELT           34 0.5 0.6 7824 39 0
ADC IMPERVIOUS     0.1 0.5 0.6 0.675 0.75 0.775 0.85 0.875 0.925 0.975
ADC PERVIOUS       0.1 0.5 0.6 0.675 0.75 0.775 0.85 0.875 0.925 0.975

[RAINGAGES]
;;Gage           Format    Interval SCF      Source    
;;-------------- --------- ------ ------ ----------
1                VOLUME    1:00     1.0      FILE       "C:\dev\plrm2014\GUI5_1_002\Data\1_Precip.dat" 1          IN   

[AQUIFERS]
;;Aquifer        Phi    WP     FC     HydCon Kslope Tslope UEF    LED    LGLR   BEL    WTEL   UZM   
;;-------------- ------ ------ ------ ------ ------ ------ ------ ------ ------ ------ ------ ------
GW1              0.57   0.04   0.09   0.67   10.00  15.00  0.35   14.00  0.00   1.00   10.00  0.07  

[GROUNDWATER]
;;Subcatchment   Aquifer          Node             Elev   A1     B1     A2     B2     A3     Hsw    Hcb    BEL    WTEL   UZM   
;;-------------- ---------------- ---------------- ------ ------ ------ ------ ------ ------ ------ ------ ------ ------ ------

[SNOWPACKS]
;;Snowpack Data
Roads            PLOWABLE   0.003      0.007      32         0.10       0.00       0.00       0.90      
Roads            IMPERVIOUS 0.003      0.007      32         0.10       0.00       0.00       0.00      
Roads            PERVIOUS   0.003      0.007      32         0.10       0.00       0.00       0.00      
Roads            REMOVAL    0.1        0.0        0.8        0.2        0.0        0.0        
Parcels          PLOWABLE   0.0014     0.006      32         0.10       0.00       0.00       0.3       
Parcels          IMPERVIOUS 0.0014     0.006      32         0.10       0.00       0.00       0.00      
Parcels          PERVIOUS   0.0014     0.006      32         0.10       0.00       0.00       0.00      
Parcels          REMOVAL    0.1        0          0.2        0.8        0          0          
Pervious         PLOWABLE   0.0016     0.0033     32         0.10       0.00       0.00       0.00      
Pervious         IMPERVIOUS 0.0016     0.0033     32         0.10       0.00       0.00       0.00      
Pervious         PERVIOUS   0.0016     0.0033     32         0.10       0.00       0.00       0.00      
Pervious         REMOVAL    0.1        0.0        0.0        0.0        0.0        0.0        

[JUNCTIONS]
;;Junction       Invert     Dmax       Dinit      Dsurch     Aponded   
;;-------------- ---------- ---------- ---------- ---------- ----------
Outfall1_UsJu    0          4          0          0          0         
Catch1_Ju        0          4          0          0          0         
Catch2_Ju        0          4          0          0          0         

[OUTFALLS]
;;Outfall        Invert     Type       Stage Data       Gated   
;;-------------- ---------- ---------- ---------------- --------
Outfall1         0          FREE                        NO
GW               0          FREE                        NO

[CONDUITS]
;;Conduit        From Node        To Node          Length     Roughness  InOffset   OutOffset  InitFlow   MaxFlow   
;;-------------- ---------------- ---------------- ---------- ---------- ---------- ---------- ---------- ----------
Outfall1_UsCo    Outfall1_UsJu    Outfall1         10         0.01       0          0          0          0         
Catch1_DsCo      Catch1_Ju        Outfall1_UsJu    10         0.01       0          0          0          0         
Catch2_DsCo      Catch2_Ju        Outfall1_UsJu    10         0.01       0          0          0          0         

[XSECTIONS]
;;Link           Shape        Geom1            Geom2      Geom3      Geom4      Barrels   
;;-------------- ------------ ---------------- ---------- ---------- ---------- ----------
Outfall1_UsCo    DUMMY        0                0          0          0          1                    
Catch1_DsCo      DUMMY        0                0          0          0          1                    
Catch2_DsCo      DUMMY        0                0          0          0          1                    

[LOSSES]
;;Link           Kin        Kout       Kavg       Flap Gate  SeepRate  
;;-------------- ---------- ---------- ---------- ---------- ----------

[POLLUTANTS]
;;Pollutant      Units  Cppt       Cgw        Crdii      Kdecay     SnowOnly   Co-Pollutant     Co-Frac    Cdwf       Cinit     
;;-------------- ------ ---------- ---------- ---------- ---------- ---------- ---------------- ---------- ---------- ----------
TSS              MG/L   0          0          0          0          NO         *                0.0        0          0         
FSP              MG/L   0          0          0          0          NO         *                0.0        0          0         
TP               MG/L   0          0          0          0          NO         *                0.0        0          0         
SRP              MG/L   0          0          0          0          NO         *                0.0        0          0         
TN               MG/L   0          0          0          0          NO         *                0.0        0          0         
DIN              MG/L   0          0          0          0          NO         *                0.0        0          0         

[LANDUSES]
;;               Cleaning   Fraction   Last      
;;Land Use       Interval   Available  Cleaned   
;;-------------- ---------- ---------- ----------
SfrNoBMP         0          0          0         
SfrBMP           0          0          0         
MfrNoBMP         0          0          0         
MfrBMP           0          0          0         
CicNoBMP         0          0          0         
CicBMP           0          0          0         
VgtNoBMP         0          0          0         
VgtBMP           0          0          0         
Vbu              0          0          0         
Upr              0          0          0         
Ski              0          0          0         
Ep1              0          0          0         
Ep2              0          0          0         
Ep3              0          0          0         
Ep4              0          0          0         
Ep5              0          0          0         
Catch1_PrrHi     0          0          0         
Catch1_PrrMo     0          0          0         
Catch1_PrrLo     0          0          0         
Catch1_SerHi     0          0          0         
Catch1_SerMo     0          0          0         
Catch1_SerLo     0          0          0         
Catch2_PrrHi     0          0          0         
Catch2_PrrMo     0          0          0         
Catch2_PrrLo     0          0          0         
Catch2_SerHi     0          0          0         
Catch2_SerMo     0          0          0         
Catch2_SerLo     0          0          0         

[BUILDUP]
;;Land Use       Pollutant        Function   Coeff1     Coeff2     Coeff3     Normalizer
;;-------------- ---------------- ---------- ---------- ---------- ---------- ----------
SfrNoBMP         TSS              NONE       0          0          0          AREA      
SfrNoBMP         FSP              NONE       0          0          0          AREA      
SfrNoBMP         TP               NONE       0          0          0          AREA      
SfrNoBMP         SRP              NONE       0          0          0          AREA      
SfrNoBMP         TN               NONE       0          0          0          AREA      
SfrNoBMP         DIN              NONE       0          0          0          AREA      
SfrBMP           TSS              NONE       0          0          0          AREA      
SfrBMP           FSP              NONE       0          0          0          AREA      
SfrBMP           TP               NONE       0          0          0          AREA      
SfrBMP           SRP              NONE       0          0          0          AREA      
SfrBMP           TN               NONE       0          0          0          AREA      
SfrBMP           DIN              NONE       0          0          0          AREA      
MfrNoBMP         TSS              NONE       0          0          0          AREA      
MfrNoBMP         FSP              NONE       0          0          0          AREA      
MfrNoBMP         TP               NONE       0          0          0          AREA      
MfrNoBMP         SRP              NONE       0          0          0          AREA      
MfrNoBMP         TN               NONE       0          0          0          AREA      
MfrNoBMP         DIN              NONE       0          0          0          AREA      
MfrBMP           TSS              NONE       0          0          0          AREA      
MfrBMP           FSP              NONE       0          0          0          AREA      
MfrBMP           TP               NONE       0          0          0          AREA      
MfrBMP           SRP              NONE       0          0          0          AREA      
MfrBMP           TN               NONE       0          0          0          AREA      
MfrBMP           DIN              NONE       0          0          0          AREA      
CicNoBMP         TSS              NONE       0          0          0          AREA      
CicNoBMP         FSP              NONE       0          0          0          AREA      
CicNoBMP         TP               NONE       0          0          0          AREA      
CicNoBMP         SRP              NONE       0          0          0          AREA      
CicNoBMP         TN               NONE       0          0          0          AREA      
CicNoBMP         DIN              NONE       0          0          0          AREA      
CicBMP           TSS              NONE       0          0          0          AREA      
CicBMP           FSP              NONE       0          0          0          AREA      
CicBMP           TP               NONE       0          0          0          AREA      
CicBMP           SRP              NONE       0          0          0          AREA      
CicBMP           TN               NONE       0          0          0          AREA      
CicBMP           DIN              NONE       0          0          0          AREA      
VgtNoBMP         TSS              NONE       0          0          0          AREA      
VgtNoBMP         FSP              NONE       0          0          0          AREA      
VgtNoBMP         TP               NONE       0          0          0          AREA      
VgtNoBMP         SRP              NONE       0          0          0          AREA      
VgtNoBMP         TN               NONE       0          0          0          AREA      
VgtNoBMP         DIN              NONE       0          0          0          AREA      
VgtBMP           TSS              NONE       0          0          0          AREA      
VgtBMP           FSP              NONE       0          0          0          AREA      
VgtBMP           TP               NONE       0          0          0          AREA      
VgtBMP           SRP              NONE       0          0          0          AREA      
VgtBMP           TN               NONE       0          0          0          AREA      
VgtBMP           DIN              NONE       0          0          0          AREA      
Vbu              TSS              NONE       0          0          0          AREA      
Vbu              FSP              NONE       0          0          0          AREA      
Vbu              TP               NONE       0          0          0          AREA      
Vbu              SRP              NONE       0          0          0          AREA      
Vbu              TN               NONE       0          0          0          AREA      
Vbu              DIN              NONE       0          0          0          AREA      
Upr              TSS              NONE       0          0          0          AREA      
Upr              FSP              NONE       0          0          0          AREA      
Upr              TP               NONE       0          0          0          AREA      
Upr              SRP              NONE       0          0          0          AREA      
Upr              TN               NONE       0          0          0          AREA      
Upr              DIN              NONE       0          0          0          AREA      
Ski              TSS              NONE       0          0          0          AREA      
Ski              FSP              NONE       0          0          0          AREA      
Ski              TP               NONE       0          0          0          AREA      
Ski              SRP              NONE       0          0          0          AREA      
Ski              TN               NONE       0          0          0          AREA      
Ski              DIN              NONE       0          0          0          AREA      
Ep1              TSS              NONE       0          0          0          AREA      
Ep1              FSP              NONE       0          0          0          AREA      
Ep1              TP               NONE       0          0          0          AREA      
Ep1              SRP              NONE       0          0          0          AREA      
Ep1              TN               NONE       0          0          0          AREA      
Ep1              DIN              NONE       0          0          0          AREA      
Ep2              TSS              NONE       0          0          0          AREA      
Ep2              FSP              NONE       0          0          0          AREA      
Ep2              TP               NONE       0          0          0          AREA      
Ep2              SRP              NONE       0          0          0          AREA      
Ep2              TN               NONE       0          0          0          AREA      
Ep2              DIN              NONE       0          0          0          AREA      
Ep3              TSS              NONE       0          0          0          AREA      
Ep3              FSP              NONE       0          0          0          AREA      
Ep3              TP               NONE       0          0          0          AREA      
Ep3              SRP              NONE       0          0          0          AREA      
Ep3              TN               NONE       0          0          0          AREA      
Ep3              DIN              NONE       0          0          0          AREA      
Ep4              TSS              NONE       0          0          0          AREA      
Ep4              FSP              NONE       0          0          0          AREA      
Ep4              TP               NONE       0          0          0          AREA      
Ep4              SRP              NONE       0          0          0          AREA      
Ep4              TN               NONE       0          0          0          AREA      
Ep4              DIN              NONE       0          0          0          AREA      
Ep5              TSS              NONE       0          0          0          AREA      
Ep5              FSP              NONE       0          0          0          AREA      
Ep5              TP               NONE       0          0          0          AREA      
Ep5              SRP              NONE       0          0          0          AREA      
Ep5              TN               NONE       0          0          0          AREA      
Ep5              DIN              NONE       0          0          0          AREA      
Catch1_PrrHi     TSS              NONE       0.0        0.0        0.0        AREA      
Catch1_PrrHi     FSP              NONE       0.0        0.0        0.0        AREA      
Catch1_PrrHi     TP               NONE       0.0        0.0        0.0        AREA      
Catch1_PrrHi     SRP              NONE       0.0        0.0        0.0        AREA      
Catch1_PrrHi     TN               NONE       0.0        0.0        0.0        AREA      
Catch1_PrrHi     DIN              NONE       0.0        0.0        0.0        AREA      
Catch1_PrrMo     TSS              NONE       0.0        0.0        0.0        AREA      
Catch1_PrrMo     FSP              NONE       0.0        0.0        0.0        AREA      
Catch1_PrrMo     TP               NONE       0.0        0.0        0.0        AREA      
Catch1_PrrMo     SRP              NONE       0.0        0.0        0.0        AREA      
Catch1_PrrMo     TN               NONE       0.0        0.0        0.0        AREA      
Catch1_PrrMo     DIN              NONE       0.0        0.0        0.0        AREA      
Catch1_PrrLo     TSS              NONE       0.0        0.0        0.0        AREA      
Catch1_PrrLo     FSP              NONE       0.0        0.0        0.0        AREA      
Catch1_PrrLo     TP               NONE       0.0        0.0        0.0        AREA      
Catch1_PrrLo     SRP              NONE       0.0        0.0        0.0        AREA      
Catch1_PrrLo     TN               NONE       0.0        0.0        0.0        AREA      
Catch1_PrrLo     DIN              NONE       0.0        0.0        0.0        AREA      
Catch1_SerHi     TSS              NONE       0.0        0.0        0.0        AREA      
Catch1_SerHi     FSP              NONE       0.0        0.0        0.0        AREA      
Catch1_SerHi     TP               NONE       0.0        0.0        0.0        AREA      
Catch1_SerHi     SRP              NONE       0.0        0.0        0.0        AREA      
Catch1_SerHi     TN               NONE       0.0        0.0        0.0        AREA      
Catch1_SerHi     DIN              NONE       0.0        0.0        0.0        AREA      
Catch1_SerMo     TSS              NONE       0.0        0.0        0.0        AREA      
Catch1_SerMo     FSP              NONE       0.0        0.0        0.0        AREA      
Catch1_SerMo     TP               NONE       0.0        0.0        0.0        AREA      
Catch1_SerMo     SRP              NONE       0.0        0.0        0.0        AREA      
Catch1_SerMo     TN               NONE       0.0        0.0        0.0        AREA      
Catch1_SerMo     DIN              NONE       0.0        0.0        0.0        AREA      
Catch1_SerLo     TSS              NONE       0.0        0.0        0.0        AREA      
Catch1_SerLo     FSP              NONE       0.0        0.0        0.0        AREA      
Catch1_SerLo     TP               NONE       0.0        0.0        0.0        AREA      
Catch1_SerLo     SRP              NONE       0.0        0.0        0.0        AREA      
Catch1_SerLo     TN               NONE       0.0        0.0        0.0        AREA      
Catch1_SerLo     DIN              NONE       0.0        0.0        0.0        AREA      
Catch2_PrrHi     TSS              NONE       0.0        0.0        0.0        AREA      
Catch2_PrrHi     FSP              NONE       0.0        0.0        0.0        AREA      
Catch2_PrrHi     TP               NONE       0.0        0.0        0.0        AREA      
Catch2_PrrHi     SRP              NONE       0.0        0.0        0.0        AREA      
Catch2_PrrHi     TN               NONE       0.0        0.0        0.0        AREA      
Catch2_PrrHi     DIN              NONE       0.0        0.0        0.0        AREA      
Catch2_PrrMo     TSS              NONE       0.0        0.0        0.0        AREA      
Catch2_PrrMo     FSP              NONE       0.0        0.0        0.0        AREA      
Catch2_PrrMo     TP               NONE       0.0        0.0        0.0        AREA      
Catch2_PrrMo     SRP              NONE       0.0        0.0        0.0        AREA      
Catch2_PrrMo     TN               NONE       0.0        0.0        0.0        AREA      
Catch2_PrrMo     DIN              NONE       0.0        0.0        0.0        AREA      
Catch2_PrrLo     TSS              NONE       0.0        0.0        0.0        AREA      
Catch2_PrrLo     FSP              NONE       0.0        0.0        0.0        AREA      
Catch2_PrrLo     TP               NONE       0.0        0.0        0.0        AREA      
Catch2_PrrLo     SRP              NONE       0.0        0.0        0.0        AREA      
Catch2_PrrLo     TN               NONE       0.0        0.0        0.0        AREA      
Catch2_PrrLo     DIN              NONE       0.0        0.0        0.0        AREA      
Catch2_SerHi     TSS              NONE       0.0        0.0        0.0        AREA      
Catch2_SerHi     FSP              NONE       0.0        0.0        0.0        AREA      
Catch2_SerHi     TP               NONE       0.0        0.0        0.0        AREA      
Catch2_SerHi     SRP              NONE       0.0        0.0        0.0        AREA      
Catch2_SerHi     TN               NONE       0.0        0.0        0.0        AREA      
Catch2_SerHi     DIN              NONE       0.0        0.0        0.0        AREA      
Catch2_SerMo     TSS              NONE       0.0        0.0        0.0        AREA      
Catch2_SerMo     FSP              NONE       0.0        0.0        0.0        AREA      
Catch2_SerMo     TP               NONE       0.0        0.0        0.0        AREA      
Catch2_SerMo     SRP              NONE       0.0        0.0        0.0        AREA      
Catch2_SerMo     TN               NONE       0.0        0.0        0.0        AREA      
Catch2_SerMo     DIN              NONE       0.0        0.0        0.0        AREA      
Catch2_SerLo     TSS              NONE       0.0        0.0        0.0        AREA      
Catch2_SerLo     FSP              NONE       0.0        0.0        0.0        AREA      
Catch2_SerLo     TP               NONE       0.0        0.0        0.0        AREA      
Catch2_SerLo     SRP              NONE       0.0        0.0        0.0        AREA      
Catch2_SerLo     TN               NONE       0.0        0.0        0.0        AREA      
Catch2_SerLo     DIN              NONE       0.0        0.0        0.0        AREA      

[WASHOFF]
;;Land Use       Pollutant        Function   Coeff1     Coeff2     Ecleaning  Ebmp      
;;-------------- ---------------- ---------- ---------- ---------- ---------- ----------
SfrNoBMP         TSS              EMC        56.4       0          0          0         
SfrNoBMP         FSP              EMC        20.3       0          0          0         
SfrNoBMP         TP               EMC        0.468      0          0          0         
SfrNoBMP         SRP              EMC        0.144      0          0          0         
SfrNoBMP         TN               EMC        1.752      0          0          0         
SfrNoBMP         DIN              EMC        0.144      0          0          0         
SfrBMP           TSS              EMC        39         0          0          0         
SfrBMP           FSP              EMC        14         0          0          0         
SfrBMP           TP               EMC        0.421      0          0          0         
SfrBMP           SRP              EMC        0.13       0          0          0         
SfrBMP           TN               EMC        1.577      0          0          0         
SfrBMP           DIN              EMC        0.13       0          0          0         
MfrNoBMP         TSS              EMC        150        0          0          0         
MfrNoBMP         FSP              EMC        87         0          0          0         
MfrNoBMP         TP               EMC        0.588      0          0          0         
MfrNoBMP         SRP              EMC        0.144      0          0          0         
MfrNoBMP         TN               EMC        2.844      0          0          0         
MfrNoBMP         DIN              EMC        0.42       0          0          0         
MfrBMP           TSS              EMC        56.4       0          0          0         
MfrBMP           FSP              EMC        32.7       0          0          0         
MfrBMP           TP               EMC        0.529      0          0          0         
MfrBMP           SRP              EMC        0.13       0          0          0         
MfrBMP           TN               EMC        2.56       0          0          0         
MfrBMP           DIN              EMC        0.378      0          0          0         
CicNoBMP         TSS              EMC        296.4      0          0          0         
CicNoBMP         FSP              EMC        186.7      0          0          0         
CicNoBMP         TP               EMC        0.702      0          0          0         
CicNoBMP         SRP              EMC        0.37       0          0          0         
CicNoBMP         TN               EMC        2.472      0          0          0         
CicNoBMP         DIN              EMC        0.293      0          0          0         
CicBMP           TSS              EMC        204        0          0          0         
CicBMP           FSP              EMC        128.5      0          0          0         
CicBMP           TP               EMC        0.536      0          0          0         
CicBMP           SRP              EMC        0.05       0          0          0         
CicBMP           TN               EMC        2.136      0          0          0         
CicBMP           DIN              EMC        0.195      0          0          0         
VgtNoBMP         TSS              EMC        12         0          0          0         
VgtNoBMP         FSP              EMC        4.3        0          0          0         
VgtNoBMP         TP               EMC        1.09       0          0          0         
VgtNoBMP         SRP              EMC        0.631      0          0          0         
VgtNoBMP         TN               EMC        4.387      0          0          0         
VgtNoBMP         DIN              EMC        0.547      0          0          0         
VgtBMP           TSS              EMC        12         0          0          0         
VgtBMP           FSP              EMC        4.3        0          0          0         
VgtBMP           TP               EMC        0.454      0          0          0         
VgtBMP           SRP              EMC        0.289      0          0          0         
VgtBMP           TN               EMC        2.369      0          0          0         
VgtBMP           DIN              EMC        0.319      0          0          0         
Vbu              TSS              EMC        1015       0          0          0         
Vbu              FSP              EMC        102        0          0          0         
Vbu              TP               EMC        1.524      0          0          0         
Vbu              SRP              EMC        0.48       0          0          0         
Vbu              TN               EMC        2.34       0          0          0         
Vbu              DIN              EMC        0.014      0          0          0         
Upr              TSS              EMC        1015       0          0          0         
Upr              FSP              EMC        102        0          0          0         
Upr              TP               EMC        1.524      0          0          0         
Upr              SRP              EMC        0.48       0          0          0         
Upr              TN               EMC        2.34       0          0          0         
Upr              DIN              EMC        0.014      0          0          0         
Ski              TSS              EMC        271        0          0          0         
Ski              FSP              EMC        27         0          0          0         
Ski              TP               EMC        0.12       0          0          0         
Ski              SRP              EMC        0.038      0          0          0         
Ski              TN               EMC        0.36       0          0          0         
Ski              DIN              EMC        0.132      0          0          0         
Ep1              TSS              EMC        14         0          0          0         
Ep1              FSP              EMC        1          0          0          0         
Ep1              TP               EMC        0.034      0          0          0         
Ep1              SRP              EMC        0.029      0          0          0         
Ep1              TN               EMC        0.164      0          0          0         
Ep1              DIN              EMC        0.011      0          0          0         
Ep2              TSS              EMC        38         0          0          0         
Ep2              FSP              EMC        4          0          0          0         