[TITLE]
;;Project Title/Notes
Input Files

[OPTIONS]
;;Option             Value
FLOW_UNITS           CFS
INFILTRATION         GREEN_AMPT
FLOW_ROUTING         KINWAVE
LINK_OFFSETS         DEPTH
MIN_SLOPE            1
ALLOW_PONDING        NO
SKIP_STEADY_STATE    NO

START_DATE           10/01/2004
START_TIME           00:00:00
REPORT_START_DATE    10/01/2004
REPORT_START_TIME    00:00:00
END_DATE             10/01/2006
END_TIME             00:00:00
SWEEP_START          01/01
SWEEP_END            12/31
DRY_DAYS             0
REPORT_STEP          00:15:00
WET_STEP             00:15:00
DRY_STEP             04:00:00
ROUTING_STEP         0:00:30 

INERTIAL_DAMPING     PARTIAL
NORMAL_FLOW_LIMITED  BOTH
FORCE_MAIN_EQUATION  H-W
VARIABLE_STEP        0.75
LENGTHENING_STEP     0
MIN_SURFAREA         0
MAX_TRIALS           0
HEAD_TOLERANCE       0
SYS_FLOW_TOL         5
LAT_FLOW_TOL         5

[EVAPORATION]
;;Evap Data      Parameters
;;-------------- ----------------
MONTHLY          0.011  0.015  0.025  0.078  0.106  0.134  0.152  0.135  0.104  0.064  0.034  0.01  
DRY_ONLY         NO

[TEMPERATURE]
;;Temp/Wind/Snow   Source/Data
TIMESERIES         TempTSeries
WINDSPEED          MONTHLY    11.5 11.7 11.2 10.5 9.5 9.2 8.7 8.5 8.9 9.8 11.2 11.5
SNOWMELT           34 0.5 0.6 7824 39 0
ADC IMPERVIOUS     0.1 0.5 0.6 0.675 0.75 0.775 0.85 0.875 0.925 0.975
ADC PERVIOUS       0.1 0.5 0.6 0.675 0.75 0.775 0.85 0.875 0.925 0.975

[RAINGAGES]
;;Gage           Format    Interval SCF      Source    
;;-------------- --------- ------ ------ ----------
204              VOLUME    1:00     1.0      FILE       "C:\dev\plrm2014\GUI5_1_002\Data\204_Precip.dat" 204        IN   

[SUBCATCHMENTS]
;;Subcatchment   Rain Gage        Outlet           Area     %Imperv  Width    %Slope   CurbLen  Snow Pack       
;;-------------- ---------------- ---------------- -------- -------- -------- -------- -------- ----------------
Catch1_RoadToInfCa 204              Catch1_Ju        0.1      56.667   1149.984 2        0        Parcels         
Catch1_RoadIsInfCa 204              Catch1_Ju        0.028    0        104544   0.1      0        Pervious        
Catch1_RoadToPchCa 204              Catch1_Ju        0.132    85       1149.984 2        0        Parcels         
Catch1_RoadIsPchCa 204              Catch1_Ju        0.138    0        522720   2        0        Pervious        
Catch1_RoadToOutCa 204              Catch1_Ju        0.2      85       418.176  2        0        Roads           
Catch1_SfrToOutCa 204              Catch1_Ju        0.1      40       66       2        0        Parcels         
Catch1_SfrToInfCa 204              Catch1_Ju        0.1      40       66       2        0        Parcels         
Catch1_SfrIsInfCa 204              Catch1_Ju        0.1      40       66       2        0        Parcels         
Catch1_MfrToOutCa 204              Catch1_Ju        0.16     50       66       2        0        Parcels         
Catch1_MfrToInfCa 204              Catch1_Ju        0.04     50       66       2        0        Parcels         
Catch1_MfrIsInfCa 204              Catch1_Ju        0.04     50       66       2        0        Parcels         
Catch1_CicToOutCa 204              Catch1_Ju        0.18     60       66       2        0        Parcels         
Catch1_CicToInfCa 204              Catch1_Ju        0.02     60       66       2        0        Parcels         
Catch1_CicIsInfCa 204              Catch1_Ju        0.02     60       66       2        0        Parcels         
Catch1_VgtToOutCa 204              Catch1_Ju        1.4      0        174.619586530263 2        0        Parcels         
Catch1_VgtIsInfCa 204              Catch1_Ju        0        0        174.619586530263 2        0        Parcels         

[SUBAREAS]
;;Subcatchment   N-Imperv   N-Perv     S-Imperv   S-Perv     PctZero    RouteTo    PctRouted 
;;-------------- ---------- ---------- ---------- ---------- ---------- ---------- ----------
Catch1_RoadToInfCa 0.0120     0.1500     0.02       0.1        0          PERVIOUS   0         
Catch1_RoadIsInfCa 0.0120     0.1500     0.02       0.067      0          PERVIOUS   0         
Catch1_RoadToPchCa 0.0120     0.1500     0.02       0.1        0          PERVIOUS   0         
Catch1_RoadIsPchCa 0.0120     0.1500     0.02       6          0          PERVIOUS   0         
Catch1_RoadToOutCa 0.0120     0.1500     0.02       0.1        0          PERVIOUS   0.733     
Catch1_SfrToOutCa 0.0120     0.1500     0.02       50         0          PERVIOUS   50        
Catch1_SfrToInfCa 0.0120     0.1500     0.02       0.1        0          PERVIOUS   0         
Catch1_SfrIsInfCa 0.0120     0.1500     0.02       0.5        0          PERVIOUS   0         
Catch1_MfrToOutCa 0.0120     0.1500     0.02       50         0          PERVIOUS   50        
Catch1_MfrToInfCa 0.0120     0.1500     0.02       0.1        0          PERVIOUS   0         
Catch1_MfrIsInfCa 0.0120     0.1500     0.02       0.5        0          PERVIOUS   0         
Catch1_CicToOutCa 0.0120     0.1500     0.02       50         0          PERVIOUS   50        
Catch1_CicToInfCa 0.0120     0.1500     0.02       0.1        0          PERVIOUS   0         
Catch1_CicIsInfCa 0.0120     0.1500     0.02       0.5        0          PERVIOUS   0         
Catch1_VgtToOutCa 0.0120     0.1500     0.02       50         0          PERVIOUS   50        
Catch1_VgtIsInfCa 0.0120     0.1500     0.02       0.5        0          PERVIOUS   0         

[INFILTRATION]
;;Subcatchment   Suction    HydCon     IMDmax    
;;-------------- ---------- ---------- ----------
Catch1_RoadToInfCa 2.897      0.4        2.897     
Catch1_RoadIsInfCa 2.897      0.5        2.897     
Catch1_RoadToPchCa 2.897      0.4        2.897     
Catch1_RoadIsPchCa 2.897      0.5        2.897     
Catch1_RoadToOutCa 2.897      0.4        2.897     
Catch1_SfrToOutCa 2.897      0.99       2.897     
Catch1_SfrToInfCa 2.897      0.99       2.897     
Catch1_SfrIsInfCa 2.897      0.99       2.897     
Catch1_MfrToOutCa 2.897      0.85       2.897     
Catch1_MfrToInfCa 2.897      0.85       2.897     
Catch1_MfrIsInfCa 2.897      0.85       2.897     
Catch1_CicToOutCa 2.897      0.71       2.897     
Catch1_CicToInfCa 2.897      0.71       2.897     
Catch1_CicIsInfCa 2.897      0.71       2.897     
Catch1_VgtToOutCa 2.897      1.42       2.897     
Catch1_VgtIsInfCa 2.897      1.42       2.897     

[AQUIFERS]
;;Aquifer        Phi    WP     FC     HydCon Kslope Tslope UEF    LED    LGLR   BEL    WTEL   UZM   
;;-------------- ------ ------ ------ ------ ------ ------ ------ ------ ------ ------ ------ ------
GW1              0.57   0.04   0.09   0.67   10.00  15.00  0.35   14.00  0.00   1.00   10.00  0.07  

[GROUNDWATER]
;;Subcatchment   Aquifer          Node             Elev   A1     B1     A2     B2     A3     Hsw    Hcb    BEL    WTEL   UZM   
;;-------------- ---------------- ---------------- ------ ------ ------ ------ ------ ------ ------ ------ ------ ------ ------
Catch1_RoadToInfCa GW1              Gw               6500   1      1      0      0      0      0      1000   *      *      *     
Catch1_RoadIsInfCa GW1              Gw               6500   1      1      0      0      0      0      1000   *      *      *     
Catch1_RoadToPchCa GW1              Gw               6500   1      1      0      0      0      0      1000   *      *      *     
Catch1_RoadIsPchCa GW1              Gw               6500   1      1      0      0      0      0      1000   *      *      *     
Catch1_RoadToOutCa GW1              Gw               6500   1      1      0      0      0      0      1000   *      *      *     
Catch1_SfrToOutCa GW1              Gw               6500   1      1      0      0      0      0      1000   *      *      *     
Catch1_SfrToInfCa GW1              Gw               6500   1      1      0      0      0      0      1000   *      *      *     
Catch1_SfrIsInfCa GW1              Gw               6500   1      1      0      0      0      0      1000   *      *      *     
Catch1_MfrToOutCa GW1              Gw               6500   1      1      0      0      0      0      1000   *      *      *     
Catch1_MfrToInfCa GW1              Gw               6500   1      1      0      0      0      0      1000   *      *      *     
Catch1_MfrIsInfCa GW1              Gw               6500   1      1      0      0      0      0      1000   *      *      *     
Catch1_CicToOutCa GW1              Gw               6500   1      1      0      0      0      0      1000   *      *      *     
Catch1_CicToInfCa GW1              Gw               6500   1      1      0      0      0      0      1000   *      *      *     
Catch1_CicIsInfCa GW1              Gw               6500   1      1      0      0      0      0      1000   *      *      *     
Catch1_VgtToOutCa GW1              Gw               6500   1      1      0      0      0      0      1000   *      *      *     
Catch1_VgtIsInfCa GW1              Gw               6500   1      1      0      0      0      0      1000   *      *      *     

[SNOWPACKS]
;;Snowpack Data
Roads            PLOWABLE   0.003      0.007      32         0.10       0.00       0.00       0.90      
Roads            IMPERVIOUS 0.003      0.007      32         0.10       0.00       0.00       0.00      
Roads            PERVIOUS   0.003      0.007      32         0.10       0.00       0.00       0.00      
Roads            REMOVAL    0.1        0.0        0.8        0.2        0.0        0.0        
Parcels          PLOWABLE   0.0014     0.006      32         0.10       0.00       0.00       0.3       
Parcels          IMPERVIOUS 0.0014     0.006      32         0.10       0.00       0.00       0.00      
Parcels          PERVIOUS   0.0014     0.006      32         0.10       0.00       0.00       0.00      
Parcels          REMOVAL    0.1        0          0.2        0.8        0          0          
Pervious         PLOWABLE   0.0016     0.0033     32         0.10       0.00       0.00       0.00      
Pervious         IMPERVIOUS 0.0016     0.0033     32         0.10       0.00       0.00       0.00      
Pervious         PERVIOUS   0.0016     0.0033     32         0.10       0.00       0.00       0.00      
Pervious         REMOVAL    0.1        0.0        0.0        0.0        0.0        0.0        

[JUNCTIONS]
;;Junction       Invert     Dmax       Dinit      Dsurch     Aponded   
;;-------------- ---------- ---------- ---------- ---------- ----------
Outfall1_UsJu    0          4          0          0          0         
Catch1_Ju        0          4          0          0          0         
DryBasin1_InJu   0          4          0          0          0         
DryBasin1_TrJu   0          4          0          0          0         
DryBasin1_OuJu   0          4          0          0          0         
InfiltrationBasin1_InJu 0          4          0          0          0         
InfiltrationBasin1_OuJu 0          4          0          0          0         
CartridgeFilter1_InJu 0          4          0          0          0         
CartridgeFilter1_TrJu 0          4          0          0          0         
CartridgeFilter1_OuJu 0          4          0          0          0         

[OUTFALLS]
;;Outfall        Invert     Type       Stage Data       Gated   
;;-------------- ---------- ---------- ---------------- --------
Outfall1         0          FREE                        NO
GW               0          FREE                        NO

[DIVIDERS]
;;Divider        Invert     Diverted Link    Type       Parameters
;;-------------- ---------- ---------------- ---------- ----------
Divider2         0          Divider2_DsCo    CUTOFF     0          4          0          0          0         
CartridgeFilter1_Di 0          CartridgeFilter1_ByCo CUTOFF     0          4          0          0          0         

[STORAGE]
;;Storage Node   Invert   Dmax     Dinit     Curve      Name/Params                  Aponded  Fevap    SeepRate
;;-------------- -------- -------- --------- ---------- ---------------------------- -------- -------- --------
DryBasin1_St     0        12.5     0         TABULAR    DryBasin1_SaSur              0        0        0       
InfiltrationBasin1_St 0        12.5     0         TABULAR    InfiltrationBasin1_SaSur     0        0        0       

[CONDUITS]
;;Conduit        From Node        To Node          Length     Roughness  InOffset   OutOffset  InitFlow   MaxFlow   
;;-------------- ---------------- ---------------- ---------- ---------- ---------- ---------- ---------- ----------
Outfall1_UsCo    Outfall1_UsJu    Outfall1         10         0.01       0          0          0          0         
Catch1_DsCo      Catch1_Ju        CartridgeFilter1_InJu 10         0.01       0          0          0          0         
DryBasin1_DsCo   DryBasin1_OuJu   Outfall1_UsJu    10         0.01       0          0          0          0         
InfiltrationBasin1_DsCo InfiltrationBasin1_OuJu Outfall1_UsJu    10         0.01       0          0          0          0         
CartridgeFilter1_DsCo CartridgeFilter1_OuJu Divider2         10         0.01       0          0          0          0         
Divider2_DsCo    Divider2         DryBasin1_InJu   10         0.01       0          0          0          0         
Divider2_DsCo2   Divider2         InfiltrationBasin1_InJu 10         0.01       0          0          0          0         
DryBasin1_OtCo   DryBasin1_TrJu   DryBasin1_OuJu   10         0.01       0          0          0          0         
DryBasin1_InCo   DryBasin1_InJu   DryBasin1_St     10         0.01       0          0          0          0         
InfiltrationBasin1_InCo InfiltrationBasin1_InJu InfiltrationBasin1_St 10         0.01       0          0          0          0         
CartridgeFilter1_OtCo CartridgeFilter1_TrJu CartridgeFilter1_OuJu 10         0.01       0          0          0          0         
CartridgeFilter1_TrCo CartridgeFilter1_Di CartridgeFilter1_TrJu 10         0.01       0          0          0          0         
CartridgeFilter1_ByCo CartridgeFilter1_Di CartridgeFilter1_OuJu 10         0.01       0          0          0          0         
CartridgeFilter1_InCo CartridgeFilter1_InJu CartridgeFilter1_Di 10         0.01       0          0          0          0         

[WEIRS]
;;Weir           From Node        To Node          Type         CrestHt    Qcoeff     Gated    EndCon   EndCoeff  
;;-------------- ---------------- ---------------- ------------ ---------- ---------- -------- -------- ----------
DryBasin1_ByWe   DryBasin1_St     DryBasin1_OuJu   V-NOTCH      2.5        2.5        NO       0        0         
InfiltrationBasin1_ByWe InfiltrationBasin1_St InfiltrationBasin1_OuJu V-NOTCH      2.5        2.5        NO       0        0         

[OUTLETS]
;;Outlet         From Node        To Node          CrestHt    Type            QTable/Qcoeff    Qexpon     Gated   
;;-------------- ---------------- ---------------- ---------- --------------- ---------------- ---------- --------
DryBasin1_TrOl   DryBasin1_St     DryBasin1_TrJu   0          TABULAR/DEPTH   DryBasin1_SdTrt             NO      
DryBasin1_GwOl   DryBasin1_St     GW               0          TABULAR/DEPTH   DryBasin1_SdInf             NO      
InfiltrationBasin1_GwOl InfiltrationBasin1_St GW               0          TABULAR/DEPTH   InfiltrationBasin1_SdInf            NO      

[XSECTIONS]
;;Link           Shape        Geom1            Geom2      Geom3      Geom4      Barrels   
;;-------------- ------------ ---------------- ---------- ---------- ---------- ----------
Outfall1_UsCo    DUMMY        0                0          0          0          1                    
Catch1_DsCo      DUMMY        0                0          0          0          1                    
DryBasin1_DsCo   DUMMY        0                0          0          0          1                    
InfiltrationBasin1_DsCo DUMMY        0                0          0          0          1                    
CartridgeFilter1_DsCo DUMMY        0                0          0          0          1                    
Divider2_DsCo    DUMMY        0                0          0          0          1                    
Divider2_DsCo2   DUMMY        0                0          0          0          1                    
DryBasin1_OtCo   DUMMY        0                0          0          0          1                    
DryBasin1_InCo   DUMMY        0                0          0          0          1                    
InfiltrationBasin1_InCo DUMMY        0                0          0          0          1                    
CartridgeFilter1_OtCo DUMMY        0                0          0          0          1                    
CartridgeFilter1_TrCo DUMMY        0                0          0          0          1                    
CartridgeFilter1_ByCo DUMMY        0                0          0          0          1                    
CartridgeFilter1_InCo DUMMY        0                0          0          0          1                    
DryBasin1_ByWe   TRIANGULAR   10               100        5          5         
InfiltrationBasin1_ByWe TRIANGULAR   10               100        5          5         

[LOSSES]
;;Link           Kin        Kout       Kavg       Flap Gate  SeepRate  
;;-------------- ---------- ---------- ---------- ---------- ----------

[POLLUTANTS]
;;Pollutant      Units  Cppt       Cgw        Crdii      Kdecay     SnowOnly   Co-Pollutant     Co-Frac    Cdwf       Cinit     
;;-------------- ------ ---------- ---------- ---------- ---------- ---------- ---------------- ---------- ---------- ----------
TSS              MG/L   0          0          0          0          NO         *                0.0        0          0         
FSP              MG/L   0          0          0          0          NO         *                0.0        0          0         
TP               MG/L   0          0          0          0          NO         *                0.0        0          0         
SRP              MG/L   0          0          0          0          NO         *                0.0        0          0         
TN               MG/L   0          0          0          0          NO         *                0.0        0          0         
DIN              MG/L   0          0          0          0          NO         *                0.0        0          0         

[LANDUSES]
;;               Cleaning   Fraction   Last      
;;Land Use       Interval   Available  Cleaned   
;;-------------- ---------- ---------- ----------
SfrNoBMP         0          0          0         
SfrBMP           0          0          0         
MfrNoBMP         0          0          0         
MfrBMP           0          0          0         
CicNoBMP         0          0          0         
CicBMP           0          0          0         
VgtNoBMP         0          0          0         
VgtBMP           0          0          0         
Vbu              0          0          0         
Upr              0          0          0         
Ski              0          0          0         
Ep1              0          0          0         
Ep2              0          0          0         
Ep3              0          0          0         
Ep4              0          0          0         
Ep5              0          0          0         
Catch1_Road2.5   0          0          0         
Catch1_Road2     0          0          0         
Catch1_Road3     0          0          0         
Catch1_Road4     0          0          0         

[COVERAGES]
;;Subcatchment   Land Use         Percent   
;;-------------- ---------------- ----------
Catch1_SfrToOutCa SfrBMP           40        
Catch1_SfrToOutCa SfrNoBMP         60        
Catch1_SfrToInfCa SfrBMP           100       
Catch1_SfrIsInfCa Ep1              100       
Catch1_MfrToOutCa MfrBMP           62.5      
Catch1_MfrToOutCa MfrNoBMP         37.5      
Catch1_MfrToInfCa MfrBMP           100       
Catch1_MfrIsInfCa Ep1              100       
Catch1_CicToOutCa CicBMP           66.667    
Catch1_CicToOutCa CicNoBMP         33.333    
Catch1_CicToInfCa CicBMP           100       
Catch1_CicIsInfCa Ep1              100       
Catch1_VgtToOutCa VgtBMP           30        
Catch1_VgtToOutCa VgtNoBMP         70        

[LOADINGS]
;;Subcatchment   Pollutant        InitLoad  
;;-------------- ---------------- ----------

[BUILDUP]
;;Land Use       Pollutant        Function   Coeff1     Coeff2     Coeff3     Normalizer
;;-------------- ---------------- ---------- ---------- ---------- ---------- ----------
SfrNoBMP         TSS              NONE       0          0          0          AREA      
SfrNoBMP         FSP              NONE       0          0          0          AREA      
SfrNoBMP         TP               NONE       0          0          0          AREA      
SfrNoBMP         SRP              NONE       0          0          0          AREA      
SfrNoBMP         TN               NONE       0          0          0          AREA      
SfrNoBMP         DIN              NONE       0          0          0          AREA      
SfrBMP           TSS              NONE       0          0          0          AREA      
SfrBMP           FSP              NONE       0          0          0          AREA      
SfrBMP           TP               NONE       0          0          0          AREA      
SfrBMP           SRP              NONE       0          0          0          AREA      
SfrBMP           TN               NONE       0          0          0          AREA      
SfrBMP           DIN              NONE       0          0          0          AREA      
MfrNoBMP         TSS              NONE       0          0          0          AREA      
MfrNoBMP         FSP              NONE       0          0          0          AREA      
MfrNoBMP         TP               NONE       0          0          0          AREA      
MfrNoBMP         SRP              NONE       0          0          0          AREA      
MfrNoBMP         TN               NONE       0          0          0          AREA      
MfrNoBMP         DIN              NONE       0          0          0          AREA      
MfrBMP           TSS              NONE       0          0          0          AREA      
MfrBMP           FSP              NONE       0          0          0          AREA      
MfrBMP           TP               NONE       0          0          0          AREA      
MfrBMP           SRP              NONE       0          0          0          AREA      
MfrBMP           TN               NONE       0          0          0          AREA      
MfrBMP           DIN              NONE       0          0          0          AREA      
CicNoBMP         TSS              NONE       0          0          0          AREA      
CicNoBMP         FSP              NONE       0          0          0          AREA      
CicNoBMP         TP               NONE       0          0          0          AREA      
CicNoBMP         SRP              NONE       0          0          0          AREA      
CicNoBMP         TN               NONE       0          0          0          AREA      
CicNoBMP         DIN              NONE       0          0          0          AREA      
CicBMP           TSS              NONE       0          0          0          AREA      
CicBMP           FSP              NONE       0          0          0          AREA      
CicBMP           TP               NONE       0          0          0          AREA      
CicBMP           SRP              NONE       0          0          0          AREA      
CicBMP           TN               NONE       0          0          0          AREA      
CicBMP           DIN              NONE       0          0          0          AREA      
VgtNoBMP         TSS              NONE       0          0          0          AREA      
VgtNoBMP         FSP              NONE       0          0          0          AREA      
VgtNoBMP         TP               NONE       0          0          0          AREA      
VgtNoBMP         SRP              NONE       0          0          0          AREA      
VgtNoBMP         TN               NONE       0          0          0          AREA      
VgtNoBMP         DIN              NONE       0          0          0          AREA      
VgtBMP           TSS              NONE       0          0          0          AREA      
VgtBMP           FSP              NONE       0          0          0          AREA      
VgtBMP           TP               NONE       0          0          0          AREA      
VgtBMP           SRP              NONE       0          0          0          AREA      
VgtBMP           TN               NONE       0          0          0          AREA      
VgtBMP           DIN              NONE       0          0          0          AREA      
Vbu              TSS              NONE       0          0          0          AREA      
Vbu              FSP              NONE       0          0          0          AREA      
Vbu              TP               NONE       0          0          0          AREA      
Vbu              SRP              NONE       0          0          0          AREA      
Vbu              TN               NONE       0          0          0          AREA      
Vbu              DIN              NONE       0          0          0          AREA      
Upr              TSS              NONE       0          0          0          AREA      
Upr              FSP              NONE       0          0          0          AREA      
Upr              TP               NONE       0          0          0          AREA      
Upr              SRP              NONE       0          0          0          AREA      
Upr              TN               NONE       0          0          0          AREA      
Upr              DIN              NONE       0          0          0          AREA      
Ski              TSS              NONE       0          0          0          AREA      
Ski              FSP              NONE       0          0          0          AREA      
Ski              TP               NONE       0          0          0          AREA      
Ski              SRP              NONE       0          0          0          AREA      
Ski              TN               NONE       0          0          0          AREA      
Ski              DIN              NONE       0          0          0          AREA      
Ep1              TSS              NONE       0          0          0          AREA      
Ep1              FSP              NONE       0          0          0          AREA      
Ep1              TP               NONE       0          0          0          AREA      
Ep1              SRP              NONE       0          0          0          AREA      
Ep1              TN               NONE       0          0          0          AREA      
Ep1              DIN              NONE       0          0          0          AREA      
Ep2              TSS              NONE       0          0          0          AREA      
Ep2              FSP              NONE       0          0          0          AREA      
Ep2              TP               NONE       0          0          0          AREA      
Ep2              SRP              NONE       0          0          0          AREA      
Ep2              TN               NONE       0          0          0          AREA      
Ep2              DIN              NONE       0          0          0          AREA      
Ep3              TSS              NONE       0          0          0          AREA      
Ep3              FSP              NONE       0          0          0          AREA      
Ep3              TP               NONE       0          0          0          AREA      
Ep3              SRP              NONE       0          0          0          AREA      
Ep3              TN               NONE       0          0          0          AREA      
Ep3              DIN              NONE       0          0          0          AREA      
Ep4              TSS              NONE       0          0          0          AREA      
Ep4              FSP              NONE       0          0          0          AREA      
Ep4              TP               NONE       0          0          0          AREA      
Ep4              SRP              NONE       0          0          0          AREA      
Ep4              TN               NONE       0          0          0          AREA      
Ep4              DIN              NONE       0          0          0          AREA      
Ep5              TSS              NONE       0          0          0          AREA      
Ep5              FSP              NONE       0          0          0          AREA      
Ep5              TP               NONE       0          0          0          AREA      
Ep5              SRP              NONE       0          0          0          AREA      
Ep5              TN               NONE       0          0          0          AREA      
Ep5              DIN              NONE       0          0          0          AREA      
Catch1_Road2.5   TSS              NONE       0.0        0.0        0.0        AREA      
Catch1_Road2.5   FSP              NONE       0.0        0.0        0.0        AREA      
Catch1_Road2.5   TP               NONE       0.0        0.0        0.0        AREA      
Catch1_Road2.5   SRP              NONE       0.0        0.0        0.0        AREA      
Catch1_Road2.5   TN               NONE       0.0        0.0        0.0        AREA      
Catch1_Road2.5   DIN              NONE       0.0        0.0        0.0        AREA      
Catch1_Road2     TSS              NONE       0.0        0.0        0.0        AREA      
Catch1_Road2     FSP              NONE       0.0        0.0        0.0        AREA      